# created with PyMOL 2.6.0
@<TRIPOS>MOLECULE
dock
65 68 1                 
SMALL
USER_CHARGES
@<TRIPOS>ATOM
1	   N	3.478	8.958	0.248	N.3	1	MOL1	0.089	
2	   N	-0.088	3.782	6.007	N.3	1	MOL1	0.089	
3	   C	5.912	8.993	-0.665	C.3	1	MOL1	0.010	
4	   C	3.990	9.738	-2.155	C.3	1	MOL1	0.010	
5	   C	4.838	8.298	0.295	C.3	1	MOL1	0.276	
6	   C	2.907	9.139	-1.113	C.3	1	MOL1	0.276	
7	   C	5.355	9.013	-2.096	C.3	1	MOL1	0.012	
8	   C	6.434	10.370	-0.181	C.3	1	MOL1	0.011	
9	   C	4.086	11.276	-2.160	C.3	1	MOL1	0.011	
10	   C	2.562	8.419	1.300	C.3	1	MOL1	0.273	
11	   C	2.328	6.931	1.336	C.3	1	MOL1	0.037	
12	   C	1.379	6.404	0.247	C.3	1	MOL1	0.017	
13	   C	-0.117	6.706	0.476	C.3	1	MOL1	0.135	
14	   C	-1.093	6.774	-0.791	C.3	1	MOL1	0.040	
15	   C	-0.724	7.955	-1.743	C.3	1	MOL1	0.133	
16	   C	-2.616	6.852	-0.321	C.3	1	MOL1	0.015	
17	   C	-1.465	8.210	-3.098	C.3	1	MOL1	0.143	
18	   C	-1.730	7.069	-4.003	C.3	1	MOL1	0.261	
19	   C	-1.204	6.450	-6.351	C.3	1	MOL1	0.141	
20	   C	-1.054	4.872	-6.044	C.3	1	MOL1	0.062	
21	   C	-0.123	4.500	-4.952	C.3	1	MOL1	-0.011	
22	   C	1.182	4.874	-4.791	C.3	1	MOL1	-0.065	
23	   C	1.855	4.558	-3.531	C.3	1	MOL1	0.010	
24	   C	2.001	5.607	-5.856	C.3	1	MOL1	0.048	
25	   C	3.114	5.132	-3.080	C.3	1	MOL1	0.051	
26	   C	3.660	5.161	-1.664	C.3	1	MOL1	0.153	
27	   C	2.950	4.360	-0.514	C.3	1	MOL1	0.056	
28	   C	1.619	4.896	-0.082	C.3	1	MOL1	0.019	
29	   C	2.937	2.771	-0.555	C.3	1	MOL1	0.018	
30	   C	-0.706	5.965	2.810	C.3	1	MOL1	0.291	
31	   C	0.054	7.536	4.575	C.3	1	MOL1	0.151	
32	   C	0.516	6.312	5.466	C.3	1	MOL1	0.182	
33	   C	0.836	8.864	4.746	C.3	1	MOL1	0.042	
34	   C	-0.360	5.012	5.087	C.3	1	MOL1	0.286	
35	   C	-0.391	4.724	3.615	C.3	1	MOL1	0.209	
36	   C	1.348	3.484	6.100	C.3	1	MOL1	0.310	
37	   C	-0.880	2.564	5.847	C.3	1	MOL1	0.310	
38	   C	-2.519	6.847	-6.952	C.3	1	MOL1	0.029	
39	   C	-3.616	5.810	-6.852	C.3	1	MOL1	0.007	
40	   C	-0.676	4.047	-7.303	C.3	1	MOL1	0.182	
41	   C	-0.971	4.066	-9.822	C.3	1	MOL1	0.291	
42	   C	-1.992	5.905	-11.250	C.3	1	MOL1	0.152	
43	   C	-2.103	7.035	-10.213	C.3	1	MOL1	0.042	
44	   C	-3.342	5.125	-11.293	C.3	1	MOL1	0.178	
45	   C	-3.495	4.174	-10.089	C.3	1	MOL1	0.185	
46	   C	-2.254	3.165	-9.861	C.3	1	MOL1	0.207	
47	   C	-5.149	2.554	-9.305	C.3	1	MOL1	0.202	
48	   C	-1.020	1.506	-11.181	C.3	1	MOL1	0.202	
49	   O	-2.585	6.254	-3.793	O.3	1	MOL1	-0.265	
50	   O	-0.988	7.206	-5.141	O.3	1	MOL1	-0.315	
51	   O	4.517	5.963	-1.466	O.3	1	MOL1	-0.293	
52	   O	-0.479	5.630	1.449	O.3	1	MOL1	-0.352	
53	   O	0.121	7.117	3.226	O.3	1	MOL1	-0.351	
54	   O	0.286	6.624	6.806	O.3	1	MOL1	-0.391	
55	   O	-1.357	3.698	3.374	O.3	1	MOL1	-0.388	
56	   O	-0.782	9.229	-1.078	O.3	1	MOL1	-0.395	
57	   O	-0.932	4.826	-8.558	O.3	1	MOL1	-0.358	
58	   O	-0.884	4.984	-10.980	O.3	1	MOL1	-0.351	
59	   O	-3.403	4.426	-12.506	O.3	1	MOL1	-0.390	
60	   O	-4.732	3.513	-10.267	O.3	1	MOL1	-0.385	
61	   O	-2.179	2.316	-11.031	O.3	1	MOL1	-0.383	
62	   H	-0.616	6.981	6.920	 H	1	MOL1	0.210	
63	   H	-1.657	4.008	2.502	 H	1	MOL1	0.210	
64	   H	-1.733	9.390	-0.928	 H	1	MOL1	0.210	
65	   H	-3.516	3.492	-12.278	 H	1	MOL1	0.210	
@<TRIPOS>BOND
1 1 5 1
2 1 6 1
3 1 10 1
4 2 36 1
5 2 37 1
6 3 5 1
7 3 7 1
8 3 8 1
9 4 6 1
10 4 7 1
11 4 9 1
12 10 11 1
13 11 12 1
14 12 13 1
15 12 28 1
16 13 14 1
17 13 52 1
18 14 15 1
19 14 16 1
20 15 17 1
21 15 56 1
22 17 18 1
23 18 49 1
24 18 50 1
25 19 20 1
26 19 38 1
27 20 21 1
28 20 40 1
29 21 22 1
30 22 23 1
31 22 24 1
32 23 25 1
33 25 26 1
34 26 27 1
35 26 51 1
36 27 28 1
37 27 29 1
38 30 35 1
39 30 53 1
40 31 32 1
41 31 33 1
42 32 34 1
43 32 54 1
44 2 34 1
45 34 35 1
46 35 55 1
47 38 39 1
48 40 57 1
49 41 46 1
50 41 58 1
51 42 43 1
52 42 44 1
53 44 45 1
54 44 59 1
55 45 46 1
56 45 60 1
57 46 61 1
58 19 50 1
59 30 52 1
60 31 53 1
61 54 62 1
62 55 63 1
63 56 64 1
64 41 57 1
65 42 58 1
66 59 65 1
67 47 60 1
68 48 61 1
@<TRIPOS>SUBSTRUCTURE
1	MOL1	1	GROUP	1 ****	MOL
